data_167829-ICSD
#?2014 by Fachinformationszentrum Karlsruhe, and the U.S. Secretary of 
#Commerce on behalf of the United States.  All rights reserved.
_database_code_ICSD                167829
_audit_creation_date               2011/02/01
_chemical_name_systematic          'Lithium Manganese Oxide (1/2/4)'
_chemical_formula_structural       'Li (Mn2 O4)'
_chemical_formula_sum              'Li1 Mn2 O4'
_publ_section_title
;
A first-principles study on phase transition induced by charge 
ordering of Mn3+/Mn4+ in spinel Li Mn2 O4
;
loop_
_citation_id
_citation_journal_abbrev
_citation_year
_citation_journal_volume
_citation_page_first
_citation_page_last
_citation_journal_id_ASTM
primary 'Solid State Communications' 2010 150 1329 1333 SSCOA4
_publ_author_name                  'Nakayama, M.;Nogami, M.'
_cell_length_a                     25.4788
_cell_length_b                     25.5137
_cell_length_c                     8.2687
_cell_angle_alpha                  90.
_cell_angle_beta                   90.
_cell_angle_gamma                  90.
_cell_volume                       5375.14
_cell_formula_units_Z              72
_symmetry_space_group_name_H-M     'F d d d Z'
_symmetry_Int_Tables_number        70
loop_
_symmetry_equiv_pos_site_id
_symmetry_equiv_pos_as_xyz
  1	'x+.75, y+.75, -z'
  2	'x+.75, -y, z+.75'
  3	'-x, y+.75, z+.75'
  4	'-x, -y, -z'
  5	'-x+.25, -y+.25, z'
  6	'-x+.25, y, -z+.25'
  7	'x, -y+.25, -z+.25'
  8	'x, y, z'
  9	'x+.75, y+.25, -z+.5'
 10	'x+.25, y+.75, -z+.5'
 11	'x+.25, y+.25, -z'
 12	'x+.75, -y+.5, z+.25'
 13	'x+.25, -y, z+.25'
 14	'x+.25, -y+.5, z+.75'
 15	'-x, y+.25, z+.25'
 16	'-x+.5, y+.75, z+.25'
 17	'-x+.5, y+.25, z+.75'
 18	'-x, -y+.5, -z+.5'
 19	'-x+.5, -y, -z+.5'
 20	'-x+.5, -y+.5, -z'
 21	'-x+.25, -y+.75, z+.5'
 22	'-x+.75, -y+.25, z+.5'
 23	'-x+.75, -y+.75, z'
 24	'-x+.25, y+.5, -z+.75'
 25	'-x+.75, y, -z+.75'
 26	'-x+.75, y+.5, -z+.25'
 27	'x, -y+.75, -z+.75'
 28	'x+.5, -y+.25, -z+.75'
 29	'x+.5, -y+.75, -z+.25'
 30	'x, y+.5, z+.5'
 31	'x+.5, y, z+.5'
 32	'x+.5, y+.5, z'
loop_
_atom_type_symbol
_atom_type_oxidation_number
Li1+	1
Mn3+	3
Mn3.25+	3.25
Mn4+	4
O2-	-2
loop_
_atom_site_label
_atom_site_type_symbol
_atom_site_symmetry_multiplicity
_atom_site_Wyckoff_symbol
_atom_site_fract_x
_atom_site_fract_y
_atom_site_fract_z
_atom_site_occupancy
_atom_site_attached_hydrogens
Mn1 Mn3+ 16 d 0.25 0.25 0.5 1. 0 
Mn2 Mn3.25+ 32 h 0.0833 0.0834 0.5 1. 0 
Mn3 Mn3+ 32 h 0.0834 0.3332 0.2501 1. 0 
Mn4 Mn4+ 32 h 0.2502 0.1666 0.2501 1. 0 
Mn5 Mn4+ 32 h 0.1667 0.2498 0.2499 1. 0 
Li1 Li1+ 8 a 0.1250 0.1250 0.1250 1. 0 
Li2 Li1+ 16 f 0.3750 0.2085 0.3750 1. 0 
Li3 Li1+ 16 e 0.2082 0.3750 0.3750 1. 0 
Li4 Li1+ 32 h 0.2916 0.2918 0.1249 1. 0 
O1 O2- 32 h 0.1713 0.1711 0.2615 1. 0 
O2 O2- 32 h 0.0788 0.0046 0.4883 1. 0 
O3 O2- 32 h 0.0790 0.3379 0.4885 1. 0 
O4 O2- 32 h 0.2456 0.1712 0.4886 1. 0 
O5 O2- 32 h 0.0045 0.0046 0.2615 1. 0 
O6 O2- 32 h 0.2547 0.0878 0.2383 1. 0 
O7 O2- 32 h 0.1622 0.3287 0.2382 1. 0 
O8 O2- 32 h 0.0879 0.2544 0.2387 1. 0 
O9 O2- 32 h 0.0878 0.1622 0.5114 1. 0 

#End of data_167829-ICSD


