data_163220-ICSD
#?2014 by Fachinformationszentrum Karlsruhe, and the U.S. Secretary of 
#Commerce on behalf of the United States.  All rights reserved.
_database_code_ICSD                163220
_audit_creation_date               2009/08/01
_chemical_name_systematic
;
Lithium Lanthanum Titanate (0.13/0.63/1)
;
_chemical_formula_structural       'Li0.125 La0.625 (Ti O3)'
_chemical_formula_sum              'La0.625 Li0.125 O3 Ti1'
_publ_section_title
;
Local structure of the Li1/8 La5/8 Ti O3 (LLTO) ionic conductor by 
theoretical simulations
;
loop_
_citation_id
_citation_journal_abbrev
_citation_year
_citation_journal_volume
_citation_page_first
_citation_page_last
_citation_journal_id_ASTM
primary 'Journal of Physics: Conference Series' 2008 117 012008-1 012008-8 JPCSDZ
_publ_author_name                  'Catti, M.'
_cell_length_a                     7.7522
_cell_length_b                     7.7522
_cell_length_c                     7.7464
_cell_angle_alpha                  90.
_cell_angle_beta                   90.
_cell_angle_gamma                  90.
_cell_volume                       465.53
_cell_formula_units_Z              8
_symmetry_space_group_name_H-M     'P 1 m 1'
_symmetry_Int_Tables_number        6
loop_
_symmetry_equiv_pos_site_id
_symmetry_equiv_pos_as_xyz
  1	'x, -y, z'
  2	'x, y, z'
loop_
_atom_type_symbol
_atom_type_oxidation_number
La3+	3
Li1+	1
O2-	-2
Ti4+	4
loop_
_atom_site_label
_atom_site_type_symbol
_atom_site_symmetry_multiplicity
_atom_site_Wyckoff_symbol
_atom_site_fract_x
_atom_site_fract_y
_atom_site_fract_z
_atom_site_occupancy
_atom_site_attached_hydrogens
La1 La3+ 1 a 0 0 0.250 1. 0 
La2 La3+ 1 b 0.02242 0.5 0.25053 1. 0 
La3 La3+ 1 a 0.49791 0 0.25502 1. 0 
La4 La3+ 1 b 0.99961 0.5 0.75037 1. 0 
La5 La3+ 1 b 0.49660 0.5 0.75039 1. 0 
Ti1 Ti4+ 2 c 0.25434 0.75589 0.99729 1. 0 
Ti2 Ti4+ 2 c 0.74376 0.25042 0.00454 1. 0 
Ti3 Ti4+ 2 c 0.25390 0.75579 0.50866 1. 0 
Ti4 Ti4+ 2 c 0.74398 0.24964 0.50361 1. 0 
O1 O2- 1 a 0.25624 0 0.02939 1. 0 
O2 O2- 1 b 0.76999 0.5 0.99942 1. 0 
O3 O2- 1 b 0.22832 0.5 0.99753 1. 0 
O4 O2- 1 a 0.74404 0 0.00432 1. 0 
O5 O2- 2 c 0.99849 0.75088 0.02047 1. 0 
O6 O2- 2 c 0.49857 0.74240 0.00195 1. 0 
O7 O2- 2 c 0.24116 0.75282 0.25470 1. 0 
O8 O2- 2 c 0.74919 0.22624 0.25551 1. 0 
O9 O2- 1 b 0.24954 0.5 0.51213 1. 0 
O10 O2- 1 a 0.75886 0 0.50694 1. 0 
O11 O2- 1 a 0.24051 0 0.47939 1. 0 
O12 O2- 1 b 0.74386 0.5 0.52088 1. 0 
O13 O2- 2 c 0.99735 0.72698 0.49241 1. 0 
O14 O2- 2 c 0.49832 0.75710 0.50637 1. 0 
O15 O2- 2 c 0.24604 0.72786 0.75431 1. 0 
O16 O2- 2 c 0.75194 0.25656 0.75573 1. 0 
Li1 Li1+ 1 a 0.76683 0 0.75572 1. 0 

#End of data_163220-ICSD


