data_98037-ICSD
#?2014 by Fachinformationszentrum Karlsruhe, and the U.S. Secretary of 
#Commerce on behalf of the United States.  All rights reserved.
_database_code_ICSD                98037
_audit_creation_date               2004/10/01
_chemical_name_systematic          'Magnesium Dialuminium Oxide - Hp'
_chemical_formula_structural       'Mg Al2 O4'
_chemical_formula_sum              'Al2 Mg1 O4'
_publ_section_title
;
Crystal structure and chemical bonding of the high-pressure phase of 
Mg Al2 O4 from first-principles calculations
;
loop_
_citation_id
_citation_journal_abbrev
_citation_year
_citation_journal_volume
_citation_journal_issue
_citation_page_first
_citation_page_last
_citation_journal_id_ASTM
primary 'Philosophical Magazine, Part A' 2002 82 15 2885 2894 PMAADG
_publ_author_name                  'Fang, C.-M.;de With, G.'
_cell_length_a                     8.565
_cell_length_b                     9.854
_cell_length_c                     2.778
_cell_angle_alpha                  90
_cell_angle_beta                   90
_cell_angle_gamma                  90
_cell_volume                       234.46
_cell_formula_units_Z              4
_symmetry_space_group_name_H-M     'P n a m'
_symmetry_Int_Tables_number        62
loop_
_symmetry_equiv_pos_site_id
_symmetry_equiv_pos_as_xyz
  1	'x+.5, -y+.5, z'
  2	'x, y, -z+.5'
  3	'-x+.5, y+.5, z+.5'
  4	'-x, -y, -z'
  5	'-x+.5, y+.5, -z'
  6	'-x, -y, z+.5'
  7	'x+.5, -y+.5, -z+.5'
  8	'x, y, z'
loop_
_atom_type_symbol
_atom_type_oxidation_number
Al3+	3
Mg2+	2
O2-	-2
loop_
_atom_site_label
_atom_site_type_symbol
_atom_site_symmetry_multiplicity
_atom_site_Wyckoff_symbol
_atom_site_fract_x
_atom_site_fract_y
_atom_site_fract_z
_atom_site_occupancy
_atom_site_attached_hydrogens
Mg1 Mg2+ 4 c 0.7560 0.6535 0.250 1. 0 
Al1 Al3+ 4 c 0.4413 0.6163 0.250 1. 0 
Al2 Al3+ 4 c 0.4132 0.1031 0.250 1. 0 
O1 O2- 4 c 0.2016 0.1682 0.250 1. 0 
O2 O2- 4 c 0.1201 0.4714 0.250 1. 0 
O3 O2- 4 c 0.5345 0.7840 0.250 1. 0 
O4 O2- 4 c 0.4120 0.4292 0.250 1. 0 

#End of data_98037-ICSD


