data_151917-ICSD
#?2014 by Fachinformationszentrum Karlsruhe, and the U.S. Secretary of 
#Commerce on behalf of the United States.  All rights reserved.
_database_code_ICSD                151917
_audit_creation_date               2006/10/01
_chemical_name_systematic          'Lithium Titanium Oxide (0.75/1/2)'
_chemical_formula_structural       'Li0.75 Ti O2'
_chemical_formula_sum              'Li0.75 O2 Ti1'
_publ_section_title
;
First principles predictions for intercalation behaviour
;
loop_
_citation_id
_citation_journal_abbrev
_citation_year
_citation_journal_volume
_citation_page_first
_citation_page_last
_citation_journal_id_ASTM
primary 'Solid State Ionics' 2004 175 829 834 SSIOD3
_publ_author_name
;
Koudriachova, M.V.;Harrison, N.M.;de Leeuw, S.W.
;
_cell_length_a                     4.96
_cell_length_b                     4.91
_cell_length_c                     5.77
_cell_angle_alpha                  90.
_cell_angle_beta                   90.
_cell_angle_gamma                  89.3
_cell_volume                       140.51
_cell_formula_units_Z              4
_symmetry_space_group_name_H-M     'P 1 1 2'
_symmetry_Int_Tables_number        3
loop_
_symmetry_equiv_pos_site_id
_symmetry_equiv_pos_as_xyz
  1	'-x, -y, z'
  2	'x, y, z'
loop_
_atom_type_symbol
_atom_type_oxidation_number
Li1+	1
O2-	-2
Ti3.25+	3.25
loop_
_atom_site_label
_atom_site_type_symbol
_atom_site_symmetry_multiplicity
_atom_site_Wyckoff_symbol
_atom_site_fract_x
_atom_site_fract_y
_atom_site_fract_z
_atom_site_occupancy
_atom_site_attached_hydrogens
Ti1 Ti3.25+ 1 a 0 0 0.006 1. 0 
Ti2 Ti3.25+ 1 a 0 0 0.515 1. 0 
Ti3 Ti3.25+ 1 d 0.5 0.5 0.284 1. 0 
Ti4 Ti3.25+ 1 d 0.5 0.5 0.760 1. 0 
O1 O2- 2 e 0.724 0.686 0.019 1. 0 
O2 O2- 2 e 0.740 0.676 0.517 1. 0 
O3 O2- 2 e 0.776 0.187 0.258 1. 0 
O4 O2- 2 e 0.782 0.193 0.769 1. 0 
Li1 Li1+ 1 b 0.5 0 0.076 1. 0 
Li2 Li1+ 1 c 0 0.5 0.234 1. 0 
Li3 Li1+ 1 c 0 0.5 0.738 1. 0 

#End of data_151917-ICSD


