data_164174-ICSD
#?2014 by Fachinformationszentrum Karlsruhe, and the U.S. Secretary of 
#Commerce on behalf of the United States.  All rights reserved.
_database_code_ICSD                164174
_audit_creation_date               2010/02/01
_chemical_name_systematic          'Iron Magnesium Catena-disilicate'
_chemical_formula_structural       'Fe Mg (Si2 O6)'
_chemical_formula_sum              'Fe1 Mg1 O6 Si2'
_chemical_name_mineral             'Enstatite, ferroan'
_publ_section_title
;
Site preference of Fe atoms in Fe Mg Si O4 and Fe Mg (Si O3)2 studied 
by density functional calculation
;
loop_
_citation_id
_citation_journal_abbrev
_citation_year
_citation_journal_volume
_citation_page_first
_citation_page_last
_citation_journal_id_ASTM
primary 'Physical Review, Serie 3. B - Condensed Matter (18,1978-)'
 2009 79 115103-1 115103-8 PRBMDO
2 'Earth and Planetary Science Letters' 1978 37 476 484 EPSLA2
_publ_author_name
;
Chatterjee, S.;Sengupta, S.;Saha Dasgupta, T.;Chatterjee, K.;Mandal, 
N.
;
_cell_length_a                     18.310
_cell_length_b                     8.904
_cell_length_c                     5.214
_cell_angle_alpha                  90.
_cell_angle_beta                   90.
_cell_angle_gamma                  90.
_cell_volume                       850.05
_cell_formula_units_Z              8
_symmetry_space_group_name_H-M     'P b c a'
_symmetry_Int_Tables_number        61
loop_
_symmetry_equiv_pos_site_id
_symmetry_equiv_pos_as_xyz
  1	'x+.5, y, -z+.5'
  2	'x, -y+.5, z+.5'
  3	'-x+.5, y+.5, z'
  4	'-x, -y, -z'
  5	'-x+.5, -y, z+.5'
  6	'-x, y+.5, -z+.5'
  7	'x+.5, -y+.5, -z'
  8	'x, y, z'
loop_
_atom_type_symbol
_atom_type_oxidation_number
Fe2+	2
Mg2+	2
O2-	-2
Si4+	4
loop_
_atom_site_label
_atom_site_type_symbol
_atom_site_symmetry_multiplicity
_atom_site_Wyckoff_symbol
_atom_site_fract_x
_atom_site_fract_y
_atom_site_fract_z
_atom_site_occupancy
_atom_site_attached_hydrogens
Mg1 Mg2+ 8 c 0.376 0.655 0.874 1. 0 
Fe1 Fe2+ 8 c 0.378 0.487 0.366 1. 0 
Si1 Si4+ 8 c 0.473 0.336 0.796 1. 0 
Si2 Si4+ 8 c 0.272 0.341 0.058 1. 0 
O1 O2- 8 c 0.562 0.335 0.798 1. 0 
O2 O2- 8 c 0.313 0.501 0.056 1. 0 
O3 O2- 8 c 0.447 0.199 0.597 1. 0 
O4 O2- 8 c 0.183 0.337 0.046 1. 0 
O5 O2- 8 c 0.433 0.485 0.695 1. 0 
O6 O2- 8 c 0.303 0.228 0.833 1. 0 

#End of data_164174-ICSD


