data_182323-ICSD
#?2014 by Fachinformationszentrum Karlsruhe, and the U.S. Secretary of 
#Commerce on behalf of the United States.  All rights reserved.
_database_code_ICSD                182323
_audit_creation_date               2012/02/01
_chemical_name_systematic          'Sodium Vanadate(III) - Nonmagnetic'
_chemical_formula_structural       'Na (V O2)'
_chemical_formula_sum              'Na1 O2 V1'
_publ_section_title
;
Structural distortion and orbital ordering in the triangular-lattice 
antiferromagnet Na V O2 from first principles
;
loop_
_citation_id
_citation_journal_abbrev
_citation_year
_citation_journal_volume
_citation_page_first
_citation_page_last
_citation_journal_id_ASTM
primary 'Physical Review, Serie 3. B - Condensed Matter (18,1978-)'
 2011 83 094417-1 094417-6 PRBMDO
_publ_author_name
;
Ouyang, Z.-W.;Xia, N.-M.;Sheng, S.-S.;Chen, J.;Xia, Z.-C.;Rao, G.-
H.;Zheng, X.-H.
;
_cell_length_a                     5.2223
_cell_length_b                     2.9755
_cell_length_c                     5.6492
_cell_angle_alpha                  90.
_cell_angle_beta                   108.335
_cell_angle_gamma                  90.
_cell_volume                       83.33
_cell_formula_units_Z              2
_symmetry_space_group_name_H-M     'C 1 2/m 1'
_symmetry_Int_Tables_number        12
loop_
_symmetry_equiv_pos_site_id
_symmetry_equiv_pos_as_xyz
  1	'-x, y, -z'
  2	'-x, -y, -z'
  3	'x, -y, z'
  4	'x, y, z'
  5	'-x+.5, y+.5, -z'
  6	'-x+.5, -y+.5, -z'
  7	'x+.5, -y+.5, z'
  8	'x+.5, y+.5, z'
loop_
_atom_type_symbol
_atom_type_oxidation_number
Na1+	1
O2-	-2
V3+	3
loop_
_atom_site_label
_atom_site_type_symbol
_atom_site_symmetry_multiplicity
_atom_site_Wyckoff_symbol
_atom_site_fract_x
_atom_site_fract_y
_atom_site_fract_z
_atom_site_occupancy
_atom_site_attached_hydrogens
Na1 Na1+ 2 a 0 0 0 1. 0 
V1 V3+ 2 d 0 0.5 0.5 1. 0 
O1 O2- 4 i 0.2358 0 0.7073 1. 0 

#End of data_182323-ICSD


